Circuit: * C:\Users\aryam\Desktop\Fall Sem 2021\Electronics Hardware Trouble Shooting Lab\Lab 5 6-9-21\Draft3 (1).asc

Direct Newton iteration for .op point succeeded.

Date: Tue Sep 21 20:17:18 2021
Total elapsed time: 0.042 seconds.

tnom = 27
temp = 27
method = modified trap
totiter = 2094
traniter = 2087
tranpoints = 1042
accept = 1042
rejected = 0
matrix size = 11
fillins = 0
solver = Normal
Matrix Compiler1: 610 bytes object code size  0.2/0.1/[0.1]
Matrix Compiler2: 835 bytes object code size  0.1/0.2/[0.1]

