Circuit: * C:\Users\aryam\OneDrive\Documents\LTspiceXVII\Draft1.asc

Direct Newton iteration for .op point succeeded.

Date: Mon Aug 02 17:08:16 2021
Total elapsed time: 0.039 seconds.

tnom = 27
temp = 27
method = modified trap
totiter = 559
traniter = 556
tranpoints = 279
accept = 279
rejected = 0
matrix size = 6
fillins = 0
solver = Normal
Matrix Compiler1: 128 bytes object code size  0.1/0.1/[0.1]
Matrix Compiler2: off  [0.1]/0.1/0.1

