Circuit: * C:\Users\aryam\Desktop\Fall Sem 2021\Electronics Hardware Trouble Shooting Lab\Lab 6 20-9-21\exp6_task4.asc

Warning: Pd = 0 is less than W.
Warning: Ps = 0 is less than W.
Warning: Pd = 0 is less than W.
Warning: Ps = 0 is less than W.

Date: Sat Oct 09 23:17:27 2021
Total elapsed time: 0.076 seconds.

tnom = 27
temp = 27
method = trap
totiter = 2011
traniter = 0
tranpoints = 0
accept = 0
rejected = 0
matrix size = 5
fillins = 0
solver = Normal
Matrix Compiler1: 132 bytes object code size  0.0/0.1/[0.0]
Matrix Compiler2: 335 bytes object code size  0.1/0.1/[0.1]

