Circuit: * C:\Users\aryam\Desktop\Fall Sem 2021\Electronics Hardware Trouble Shooting Lab\Lab 6 20-9-21\exp6_task6.asc

Warning: Pd = 0 is less than W.
Warning: Ps = 0 is less than W.
Warning: Pd = 0 is less than W.
Warning: Ps = 0 is less than W.
Direct Newton iteration for .op point succeeded.

Date: Sat Oct 09 23:10:38 2021
Total elapsed time: 0.055 seconds.

tnom = 27
temp = 27
method = modified trap
totiter = 2279
traniter = 2264
tranpoints = 890
accept = 871
rejected = 19
matrix size = 8
fillins = 0
solver = Normal
Matrix Compiler1: 300 bytes object code size  0.1/0.0/[0.0]
Matrix Compiler2: off  [0.1]/0.1/0.1

