Circuit: * C:\Users\aryam\Desktop\Fall Sem 2021\Electronics Hardware Trouble Shooting Lab\Lab 6 20-9-21\T1.asc

Direct Newton iteration for .op point succeeded.

Date: Mon Sep 27 13:03:58 2021
Total elapsed time: 0.099 seconds.

tnom = 27
temp = 27
method = modified trap
totiter = 1897
traniter = 1891
tranpoints = 879
accept = 863
rejected = 16
matrix size = 5
fillins = 0
solver = Normal
Matrix Compiler1: 132 bytes object code size  0.1/0.1/[0.1]
Matrix Compiler2: 335 bytes object code size  0.1/0.1/[0.1]

