Circuit: * C:\Users\aryam\Desktop\Fall Sem 2021\Electronics Hardware Trouble Shooting Lab\Lab 6 20-9-21\T1.asc

Direct Newton iteration for .op point succeeded.

Date: Sat Oct 09 23:01:08 2021
Total elapsed time: 0.049 seconds.

tnom = 27
temp = 27
method = modified trap
totiter = 1897
traniter = 1891
tranpoints = 879
accept = 863
rejected = 16
matrix size = 5
fillins = 0
solver = Normal
Matrix Compiler1: 132 bytes object code size  0.0/0.0/[0.0]
Matrix Compiler2: 335 bytes object code size  0.0/0.0/[0.0]

