Circuit: * C:\Users\aryam\Desktop\Fall Sem 2021\Electronics Hardware Trouble Shooting Lab\Lab 2 9-8-21\Experiment 2\2 Diode Characteristics.asc


Date: Sat Aug 21 22:08:00 2021
Total elapsed time: 0.081 seconds.

tnom = 27
temp = 27
method = trap
totiter = 811
traniter = 0
tranpoints = 0
accept = 0
rejected = 0
matrix size = 4
fillins = 0
solver = Normal
Matrix Compiler1:       7 opcodes  0.1/[0.0]/0.1
Matrix Compiler2:      21 opcodes  0.1/[0.0]/0.1

