Circuit: * C:\Users\aryam\Desktop\Fall Sem 2021\Electronics Hardware Trouble Shooting Lab\Lab 2 9-8-21\Experiment 2\4 zener diode characteristics.asc


Date: Sat Aug 21 22:11:20 2021
Total elapsed time: 0.065 seconds.

tnom = 27
temp = 27
method = trap
totiter = 847
traniter = 0
tranpoints = 0
accept = 0
rejected = 0
matrix size = 4
fillins = 0
solver = Normal
Matrix Compiler1: 118 bytes object code size  0.1/0.1/[0.0]
Matrix Compiler2: 242 bytes object code size  0.0/0.1/[0.0]

