Circuit: * C:\Users\aryam\Desktop\Fall Sem 2021\Electronics Hardware Trouble Shooting Lab\Lab 2 9-8-21\Experiment 2\6b-1.asc

.step v1=0.5
.step v1=0.52
.step v1=0.54
.step v1=0.56
.step v1=0.58
.step v1=0.6

Date: Sat Aug 21 22:15:43 2021
Total elapsed time: 0.167 seconds.

tnom = 27
temp = 27
method = trap
totiter = 25241
traniter = 0
tranpoints = 0
accept = 0
rejected = 0
matrix size = 9
fillins = 0
solver = Normal
Matrix Compiler1: 376 bytes object code size  0.2/0.1/[0.1]
Matrix Compiler2: 633 bytes object code size  0.1/0.1/[0.1]

