Circuit: * C:\Users\aryam\Desktop\Fall Sem 2021\Electronics Hardware Trouble Shooting Lab\Lab 2 9-8-21\Experiment 2\6c-1.asc

.step v_be=0.5
.step v_be=0.52
.step v_be=0.54
.step v_be=0.56
.step v_be=0.58
.step v_be=0.6

Date: Sat Aug 21 22:25:42 2021
Total elapsed time: 0.043 seconds.

tnom = 27
temp = 27
method = trap
totiter = 636
traniter = 0
tranpoints = 0
accept = 0
rejected = 0
matrix size = 7
fillins = 0
solver = Normal
Matrix Compiler1: 312 bytes object code size  0.1/0.1/[0.1]
Matrix Compiler2: off  [0.1]/0.1/0.1

