Circuit: * C:\Users\aryam\OneDrive\Documents\LTspiceXVII\Draft3.asc

.step v_be=0.5
.step v_be=0.52
.step v_be=0.54
.step v_be=0.56
.step v_be=0.58
.step v_be=0.6

Date: Mon Aug 09 13:24:20 2021
Total elapsed time: 0.216 seconds.

tnom = 27
temp = 27
method = trap
totiter = 24085
traniter = 0
tranpoints = 0
accept = 0
rejected = 0
matrix size = 9
fillins = 0
solver = Normal
Matrix Compiler1: 456 bytes object code size  0.2/0.1/[0.1]
Matrix Compiler2: 667 bytes object code size  0.1/0.1/[0.1]

