Circuit: * C:\Users\aryam\OneDrive\Documents\LTspiceXVII\Draft2.asc

.OP point found by inspection.
.step v_ce=0
.step v_ce=4
.step v_ce=8
.step v_ce=12
.step v_ce=16

Date: Mon Aug 09 13:13:52 2021
Total elapsed time: 0.112 seconds.

tnom = 27
temp = 27
method = trap
totiter = 1095
traniter = 0
tranpoints = 0
accept = 0
rejected = 0
matrix size = 9
fillins = 0
solver = Normal
Matrix Compiler1: 456 bytes object code size  0.1/0.1/[0.1]
Matrix Compiler2: 667 bytes object code size  0.1/0.1/[0.1]

