Circuit: * C:\Users\aryam\OneDrive\Documents\LTspiceXVII\Draft5.asc

.OP point found by inspection.

Date: Mon Aug 16 13:14:26 2021
Total elapsed time: 0.063 seconds.

tnom = 27
temp = 27
method = modified trap
totiter = 1641
traniter = 1641
tranpoints = 595
accept = 403
rejected = 192
matrix size = 6
fillins = 0
solver = Normal
Matrix Compiler1: 164 bytes object code size  0.1/0.0/[0.0]
Matrix Compiler2: off  [0.0]/0.1/0.0

