Circuit: * C:\Users\aryam\Desktop\Fall Sem 2021\Electronics Hardware Trouble Shooting Lab\Lab 11 8-11-21\Aryaman.asc

Direct Newton iteration for .op point succeeded.

Date: Wed Nov 17 22:32:49 2021
Total elapsed time: 1.139 seconds.

tnom = 27
temp = 27
method = modified trap
totiter = 471565
traniter = 471551
tranpoints = 156130
accept = 109044
rejected = 47086
matrix size = 14
fillins = 6
solver = Normal
Matrix Compiler1: 928 bytes object code size  0.4/0.3/[0.2]
Matrix Compiler2: 1.05 KB object code size  0.2/0.3/[0.2]

