Circuit: * C:\Users\aryam\Desktop\Fall Sem 2021\Electronics Hardware Trouble Shooting Lab\Lab 10 18-10-21\Draft2.asc

Error on line 3 : v1 n002 0 v
	 Unknown parameter "v"
Error on line 4 : v2 n003 0 v
	 Unknown parameter "v"
WARNING: Less than two connections to node N001.  This node is used by S1.
V2: Missing value, assumed 0V @ DC
V1: Missing value, assumed 0V @ DC
.OP point found by inspection.

Date: Mon Nov 08 12:37:29 2021
Total elapsed time: 0.048 seconds.

tnom = 27
temp = 27
method = modified trap
totiter = 660
traniter = 660
tranpoints = 331
accept = 331
rejected = 0
matrix size = 5
fillins = 0
solver = Normal
Matrix Compiler1:       7 opcodes  0.0/[0.0]/0.0
Matrix Compiler2: 241 bytes object code size  0.0/0.0/[0.0]

