Circuit: * C:\Users\aryam\Desktop\Fall Sem 2021\Electronics Hardware Trouble Shooting Lab\Lab 10 18-10-21\Draft1.asc

Direct Newton iteration for .op point succeeded.

Date: Mon Oct 18 13:02:43 2021
Total elapsed time: 1.530 seconds.

tnom = 27
temp = 27
method = modified trap
totiter = 394259
traniter = 394253
tranpoints = 121784
accept = 95678
rejected = 26106
matrix size = 11
fillins = 4
solver = Normal
Matrix Compiler1: 754 bytes object code size  0.1/0.1/[0.1]
Matrix Compiler2: 897 bytes object code size  0.1/0.1/[0.1]

