Circuit: * C:\Users\Bulbul\Desktop\ece1008\exp10_task3_circuit.asc

Direct Newton iteration for .op point succeeded.

Date: Mon Nov 15 13:18:24 2021
Total elapsed time: 0.260 seconds.

tnom = 27
temp = 27
method = trap
totiter = 9
traniter = 0
tranpoints = 0
accept = 0
rejected = 0
matrix size = 11
fillins = 3
solver = Normal
Matrix Compiler1:      40 opcodes
Matrix Compiler2: 889 bytes object code size
