Circuit: * C:\Users\Bulbul\Desktop\ece1008\exp10_task4_circuit.asc

Direct Newton iteration for .op point succeeded.

Date: Mon Nov 15 13:46:52 2021
Total elapsed time: 1.674 seconds.

tnom = 27
temp = 27
method = modified trap
totiter = 394305
traniter = 394299
tranpoints = 122097
accept = 96137
rejected = 25960
matrix size = 13
fillins = 4
solver = Normal
Matrix Compiler1:      49 opcodes  0.3/[0.2]/0.2
Matrix Compiler2: off  [0.2]/0.3/0.2

