Circuit: * C:\Users\aryam\Desktop\Fall Sem 2021\Electronics Hardware Trouble Shooting Lab\FAT\fullwave32 (1).asc

.OP point found by inspection.

Date: Mon Dec 06 21:14:14 2021
Total elapsed time: 0.144 seconds.

tnom = 27
temp = 27
method = modified trap
totiter = 19004
traniter = 19004
tranpoints = 5582
accept = 4227
rejected = 1355
matrix size = 10
fillins = 4
solver = Normal
Matrix Compiler1: 774 bytes object code size  0.1/0.1/[0.1]
Matrix Compiler2: off  [0.1]/0.1/0.1

