Circuit: * C:\Users\aryam\Desktop\Fall Sem 2021\Electronics Hardware Trouble Shooting Lab\Lab 7 27-9-21\Draft3.asc

Direct Newton iteration for .op point succeeded.

Date: Mon Sep 27 12:56:04 2021
Total elapsed time: 0.080 seconds.

tnom = 27
temp = 27
method = modified trap
totiter = 2455
traniter = 2438
tranpoints = 1187
accept = 1149
rejected = 38
matrix size = 5
fillins = 0
solver = Normal
Matrix Compiler1: 132 bytes object code size  0.0/0.0/[0.0]
Matrix Compiler2: 335 bytes object code size  0.0/0.0/[0.0]

