Circuit: * C:\Users\aryam\Desktop\Fall Sem 2021\Electronics Hardware Trouble Shooting Lab\Lab 7 27-9-21\exp7_task3_2.asc

Direct Newton iteration for .op point succeeded.

Date: Sat Oct 09 23:53:27 2021
Total elapsed time: 0.050 seconds.

tnom = 27
temp = 27
method = modified trap
totiter = 2636
traniter = 2619
tranpoints = 1194
accept = 1160
rejected = 34
matrix size = 8
fillins = 0
solver = Normal
Matrix Compiler1: 264 bytes object code size  0.1/0.0/[0.0]
Matrix Compiler2: 648 bytes object code size  0.1/0.1/[0.1]

