Circuit: * C:\Users\aryam\Desktop\Fall Sem 2021\Electronics Hardware Trouble Shooting Lab\Lab 7 27-9-21\exp7_task3_1.asc

Direct Newton iteration for .op point succeeded.

Date: Sat Oct 09 23:51:59 2021
Total elapsed time: 0.046 seconds.

tnom = 27
temp = 27
method = modified trap
totiter = 2339
traniter = 2336
tranpoints = 1145
accept = 1120
rejected = 25
matrix size = 7
fillins = 0
solver = Normal
Matrix Compiler1: 178 bytes object code size  0.0/0.0/[0.0]
Matrix Compiler2: 427 bytes object code size  0.1/0.0/[0.0]

