Circuit: * C:\Users\aryam\Desktop\Fall Sem 2021\Electronics Hardware Trouble Shooting Lab\Lab 7 27-9-21\task7_21 (1).asc

Direct Newton iteration for .op point succeeded.

Date: Sat Oct 09 23:38:21 2021
Total elapsed time: 0.057 seconds.

tnom = 27
temp = 27
method = modified trap
totiter = 3316
traniter = 3312
tranpoints = 1199
accept = 1164
rejected = 35
matrix size = 8
fillins = 0
solver = Normal
Matrix Compiler1: 228 bytes object code size  0.1/0.1/[0.0]
Matrix Compiler2: off  [0.0]/0.1/0.1

