Circuit: * C:\Users\aryam\Desktop\Fall Sem 2021\Electronics Hardware Trouble Shooting Lab\Lab 7 27-9-21\task7_22.asc

Direct Newton iteration for .op point succeeded.

Date: Sat Oct 09 23:40:22 2021
Total elapsed time: 0.061 seconds.

tnom = 27
temp = 27
method = modified trap
totiter = 2443
traniter = 2426
tranpoints = 1180
accept = 1147
rejected = 33
matrix size = 7
fillins = 0
solver = Normal
Matrix Compiler1: 214 bytes object code size  0.1/0.1/[0.0]
Matrix Compiler2: 495 bytes object code size  0.1/0.1/[0.0]

