Circuit: * C:\Users\aryam\Desktop\Fall Sem 2021\Electronics Hardware Trouble Shooting Lab\Lab 4 31-8-21\Draft1.asc

Error on line 4 : v1 n001 0 v
	 Unknown parameter "v"
Error on line 5 : v2 n002 0 v
	 Unknown parameter "v"
V2: Missing value, assumed 0V @ DC
V1: Missing value, assumed 0V @ DC
.OP point found by inspection.

Date: Mon Sep 20 13:03:30 2021
Total elapsed time: 0.095 seconds.

tnom = 27
temp = 27
method = modified trap
totiter = 1634
traniter = 1634
tranpoints = 818
accept = 818
rejected = 0
matrix size = 5
fillins = 0
solver = Normal
Matrix Compiler1: 204 bytes object code size  0.1/0.0/[0.0]
Matrix Compiler2: 311 bytes object code size  0.1/0.1/[0.0]

