Circuit: * C:\Users\Bulbul\Desktop\ece1008\exp4_task21.asc

.OP point found by inspection.

Date: Mon Aug 30 16:58:25 2021
Total elapsed time: 0.159 seconds.

tnom = 27
temp = 27
method = modified trap
totiter = 8288
traniter = 8288
tranpoints = 2484
accept = 1992
rejected = 492
matrix size = 10
fillins = 4
solver = Normal
Matrix Compiler1: 774 bytes object code size  0.4/0.3/[0.2]
Matrix Compiler2: off  [0.2]/0.4/0.3

