Circuit: * C:\Users\Bulbul\Desktop\ece1008\EXP4_TASK22.asc

.OP point found by inspection.

Date: Mon Aug 30 16:59:04 2021
Total elapsed time: 0.138 seconds.

tnom = 27
temp = 27
method = modified trap
totiter = 8779
traniter = 8779
tranpoints = 2648
accept = 2100
rejected = 548
matrix size = 10
fillins = 4
solver = Normal
Matrix Compiler1: 774 bytes object code size  0.3/0.2/[0.1]
Matrix Compiler2: 836 bytes object code size  0.1/0.2/[0.1]

