Circuit: * C:\Users\aryam\Desktop\Fall Sem 2021\Electronics Hardware Trouble Shooting Lab\Lab 4 31-8-21\TASK1.asc

.OP point found by inspection.

Date: Tue Sep 07 18:56:51 2021
Total elapsed time: 0.187 seconds.

tnom = 27
temp = 27
method = modified trap
totiter = 4687
traniter = 4687
tranpoints = 1787
accept = 1425
rejected = 362
matrix size = 6
fillins = 0
solver = Normal
Matrix Compiler1:      15 opcodes  0.1/[0.1]/0.1
Matrix Compiler2: 408 bytes object code size  0.1/0.1/[0.1]

