Circuit: * C:\Users\aryam\Desktop\Fall Sem 2021\Electronics Hardware Trouble Shooting Lab\Lab 4 31-8-21\TASK12.asc

.OP point found by inspection.

Date: Tue Sep 07 19:07:15 2021
Total elapsed time: 0.217 seconds.

tnom = 27
temp = 27
method = modified trap
totiter = 4558
traniter = 4558
tranpoints = 1717
accept = 1397
rejected = 320
matrix size = 6
fillins = 0
solver = Normal
Matrix Compiler1: 254 bytes object code size  0.6/0.1/[0.1]
Matrix Compiler2: 408 bytes object code size  0.1/0.1/[0.1]

