Circuit: * C:\Users\aryam\Desktop\Fall Sem 2021\Electronics Hardware Trouble Shooting Lab\Lab 6 20-9-21\Exp 06\Draft1.asc

Warning: Pd = 0 is less than W.
Warning: Ps = 0 is less than W.
Warning: Pd = 0 is less than W.
Warning: Ps = 0 is less than W.
Direct Newton iteration for .op point succeeded.
Heightened Def Con from 3.08607e-008 to 3.103e-008
Heightened Def Con from 7.08608e-008 to 7.103e-008

Date: Mon Sep 27 13:15:27 2021
Total elapsed time: 0.106 seconds.

tnom = 27
temp = 27
method = modified trap
totiter = 3364
traniter = 3351
tranpoints = 1217
accept = 1084
rejected = 135
matrix size = 8
fillins = 0
solver = Normal
Matrix Compiler1: 300 bytes object code size  0.1/0.1/[0.1]
Matrix Compiler2: 676 bytes object code size  0.1/0.2/[0.1]

